
---------- Begin Simulation Statistics ----------
final_tick                                  454507000                       # Number of ticks from beginning of simulation (restored from checkpoints and never reset)
host_inst_rate                                 111173                       # Simulator instruction rate (inst/s)
host_mem_usage                                 643664                       # Number of bytes of host memory used
host_op_rate                                   200289                       # Simulator op (including micro ops) rate (op/s)
host_seconds                                     0.05                       # Real time elapsed on the host
host_tick_rate                             8821832607                       # Simulator tick rate (ticks/s)
sim_freq                                 1000000000000                       # Frequency of simulated ticks
sim_insts                                        5712                       # Number of instructions simulated
sim_ops                                         10313                       # Number of ops (including micro ops) simulated
sim_seconds                                  0.000455                       # Number of seconds simulated
sim_ticks                                   454507000                       # Number of ticks simulated
system.cpu.BranchMispred                          446                       # Number of branch mispredictions
system.cpu.BranchMispredPercent             34.150077                       # Percent of Branch Mispredict
system.cpu.Branches                              1306                       # Number of branches fetched
system.cpu.branchPred.BTBCorrect                    0                       # Number of correct BTB predictions (this stat may not work properly.
system.cpu.branchPred.BTBHitPct              0.000000                       # BTB Hit Percentage
system.cpu.branchPred.BTBHits                       0                       # Number of BTB hits
system.cpu.branchPred.BTBLookups                 1021                       # Number of BTB lookups
system.cpu.branchPred.BTBMissPct           100.000000                       # BTB Miss Percentage
system.cpu.branchPred.RASInCorrect                  0                       # Number of incorrect RAS predictions.
system.cpu.branchPred.condIncorrect               446                       # Number of conditional branches incorrect
system.cpu.branchPred.condPredicted              1085                       # Number of conditional branches predicted
system.cpu.branchPred.indirectHits                283                       # Number of indirect target hits.
system.cpu.branchPred.indirectLookups            1021                       # Number of indirect predictor lookups.
system.cpu.branchPred.indirectMisses              738                       # Number of indirect misses.
system.cpu.branchPred.lookups                    1306                       # Number of BP lookups
system.cpu.branchPred.usedRAS                     109                       # Number of times the RAS was used to get a target.
system.cpu.branchPredindirectMispredicted          361                       # Number of mispredicted indirect branches.
system.cpu.committedInsts                        5712                       # Number of instructions committed
system.cpu.committedOps                         10313                       # Number of ops (including micro ops) committed
system.cpu.dtb.rdAccesses                        1084                       # TLB accesses on read requests
system.cpu.dtb.rdMisses                             9                       # TLB misses on read requests
system.cpu.dtb.wrAccesses                         941                       # TLB accesses on write requests
system.cpu.dtb.wrMisses                             7                       # TLB misses on write requests
system.cpu.idle_fraction                     0.000000                       # Percentage of idle cycles
system.cpu.itb.rdAccesses                           0                       # TLB accesses on read requests
system.cpu.itb.rdMisses                             0                       # TLB misses on read requests
system.cpu.itb.wrAccesses                        7283                       # TLB accesses on write requests
system.cpu.itb.wrMisses                            31                       # TLB misses on write requests
system.cpu.not_idle_fraction                 1.000000                       # Percentage of non-idle cycles
system.cpu.numCycles                           909014                       # number of cpu cycles simulated
system.cpu.numWorkItemsCompleted                    0                       # number of work items this cpu completed
system.cpu.numWorkItemsStarted                      0                       # number of work items this cpu started
system.cpu.num_busy_cycles               909013.998000                       # Number of busy cycles
system.cpu.num_cc_register_reads                 7020                       # number of times the CC registers were read
system.cpu.num_cc_register_writes                3825                       # number of times the CC registers were written
system.cpu.num_conditional_control_insts          986                       # number of instructions that are conditional controls
system.cpu.num_fp_alu_accesses                      0                       # Number of float alu accesses
system.cpu.num_fp_insts                             0                       # number of float instructions
system.cpu.num_fp_register_reads                    0                       # number of times the floating registers were read
system.cpu.num_fp_register_writes                   0                       # number of times the floating registers were written
system.cpu.num_func_calls                         221                       # number of times a function call or return occured
system.cpu.num_idle_cycles                   0.002000                       # Number of idle cycles
system.cpu.num_int_alu_accesses                 10193                       # Number of integer alu accesses
system.cpu.num_int_insts                        10193                       # number of integer instructions
system.cpu.num_int_register_reads               19276                       # number of times the integer registers were read
system.cpu.num_int_register_writes               7976                       # number of times the integer registers were written
system.cpu.num_load_insts                        1084                       # Number of load instructions
system.cpu.num_mem_refs                          2025                       # number of memory refs
system.cpu.num_store_insts                        941                       # Number of store instructions
system.cpu.num_vec_alu_accesses                     0                       # Number of vector alu accesses
system.cpu.num_vec_insts                            0                       # number of vector instructions
system.cpu.num_vec_register_reads                   0                       # number of times the vector registers were read
system.cpu.num_vec_register_writes                  0                       # number of times the vector registers were written
system.cpu.op_class::No_OpClass                     1      0.01%      0.01% # Class of executed instruction
system.cpu.op_class::IntAlu                      8274     80.23%     80.24% # Class of executed instruction
system.cpu.op_class::IntMult                        6      0.06%     80.30% # Class of executed instruction
system.cpu.op_class::IntDiv                         7      0.07%     80.36% # Class of executed instruction
system.cpu.op_class::FloatAdd                       0      0.00%     80.36% # Class of executed instruction
system.cpu.op_class::FloatCmp                       0      0.00%     80.36% # Class of executed instruction
system.cpu.op_class::FloatCvt                       0      0.00%     80.36% # Class of executed instruction
system.cpu.op_class::FloatMult                      0      0.00%     80.36% # Class of executed instruction
system.cpu.op_class::FloatMultAcc                   0      0.00%     80.36% # Class of executed instruction
system.cpu.op_class::FloatDiv                       0      0.00%     80.36% # Class of executed instruction
system.cpu.op_class::FloatMisc                      0      0.00%     80.36% # Class of executed instruction
system.cpu.op_class::FloatSqrt                      0      0.00%     80.36% # Class of executed instruction
system.cpu.op_class::SimdAdd                        0      0.00%     80.36% # Class of executed instruction
system.cpu.op_class::SimdAddAcc                     0      0.00%     80.36% # Class of executed instruction
system.cpu.op_class::SimdAlu                        0      0.00%     80.36% # Class of executed instruction
system.cpu.op_class::SimdCmp                        0      0.00%     80.36% # Class of executed instruction
system.cpu.op_class::SimdCvt                        0      0.00%     80.36% # Class of executed instruction
system.cpu.op_class::SimdMisc                       0      0.00%     80.36% # Class of executed instruction
system.cpu.op_class::SimdMult                       0      0.00%     80.36% # Class of executed instruction
system.cpu.op_class::SimdMultAcc                    0      0.00%     80.36% # Class of executed instruction
system.cpu.op_class::SimdShift                      0      0.00%     80.36% # Class of executed instruction
system.cpu.op_class::SimdShiftAcc                   0      0.00%     80.36% # Class of executed instruction
system.cpu.op_class::SimdDiv                        0      0.00%     80.36% # Class of executed instruction
system.cpu.op_class::SimdSqrt                       0      0.00%     80.36% # Class of executed instruction
system.cpu.op_class::SimdFloatAdd                   0      0.00%     80.36% # Class of executed instruction
system.cpu.op_class::SimdFloatAlu                   0      0.00%     80.36% # Class of executed instruction
system.cpu.op_class::SimdFloatCmp                   0      0.00%     80.36% # Class of executed instruction
system.cpu.op_class::SimdFloatCvt                   0      0.00%     80.36% # Class of executed instruction
system.cpu.op_class::SimdFloatDiv                   0      0.00%     80.36% # Class of executed instruction
system.cpu.op_class::SimdFloatMisc                  0      0.00%     80.36% # Class of executed instruction
system.cpu.op_class::SimdFloatMult                  0      0.00%     80.36% # Class of executed instruction
system.cpu.op_class::SimdFloatMultAcc               0      0.00%     80.36% # Class of executed instruction
system.cpu.op_class::SimdFloatSqrt                  0      0.00%     80.36% # Class of executed instruction
system.cpu.op_class::SimdReduceAdd                  0      0.00%     80.36% # Class of executed instruction
system.cpu.op_class::SimdReduceAlu                  0      0.00%     80.36% # Class of executed instruction
system.cpu.op_class::SimdReduceCmp                  0      0.00%     80.36% # Class of executed instruction
system.cpu.op_class::SimdFloatReduceAdd             0      0.00%     80.36% # Class of executed instruction
system.cpu.op_class::SimdFloatReduceCmp             0      0.00%     80.36% # Class of executed instruction
system.cpu.op_class::SimdAes                        0      0.00%     80.36% # Class of executed instruction
system.cpu.op_class::SimdAesMix                     0      0.00%     80.36% # Class of executed instruction
system.cpu.op_class::SimdSha1Hash                   0      0.00%     80.36% # Class of executed instruction
system.cpu.op_class::SimdSha1Hash2                  0      0.00%     80.36% # Class of executed instruction
system.cpu.op_class::SimdSha256Hash                 0      0.00%     80.36% # Class of executed instruction
system.cpu.op_class::SimdSha256Hash2                0      0.00%     80.36% # Class of executed instruction
system.cpu.op_class::SimdShaSigma2                  0      0.00%     80.36% # Class of executed instruction
system.cpu.op_class::SimdShaSigma3                  0      0.00%     80.36% # Class of executed instruction
system.cpu.op_class::SimdPredAlu                    0      0.00%     80.36% # Class of executed instruction
system.cpu.op_class::MemRead                     1084     10.51%     90.88% # Class of executed instruction
system.cpu.op_class::MemWrite                     941      9.12%    100.00% # Class of executed instruction
system.cpu.op_class::FloatMemRead                   0      0.00%    100.00% # Class of executed instruction
system.cpu.op_class::FloatMemWrite                  0      0.00%    100.00% # Class of executed instruction
system.cpu.op_class::IprAccess                      0      0.00%    100.00% # Class of executed instruction
system.cpu.op_class::InstPrefetch                   0      0.00%    100.00% # Class of executed instruction
system.cpu.op_class::total                      10313                       # Class of executed instruction
system.cpu.predictedBranches                      392                       # Number of branches predicted as taken
system.cpu.workload.numSyscalls                    11                       # Number of system calls
system.membus.snoop_filter.hit_multi_requests            0                       # Number of requests hitting in the snoop filter with multiple (>1) holders of the requested data.
system.membus.snoop_filter.hit_multi_snoops            0                       # Number of snoops hitting in the snoop filter with multiple (>1) holders of the requested data.
system.membus.snoop_filter.hit_single_requests            0                       # Number of requests hitting in the snoop filter with a single holder of the requested data.
system.membus.snoop_filter.hit_single_snoops            0                       # Number of snoops hitting in the snoop filter with a single holder of the requested data.
system.membus.snoop_filter.tot_requests             0                       # Total number of requests made to the snoop filter.
system.membus.snoop_filter.tot_snoops               0                       # Total number of snoops made to the snoop filter.
system.membus.pwrStateResidencyTicks::UNDEFINED    454507000                       # Cumulative time (in ticks) in various power states
system.membus.trans_dist::ReadReq                8367                       # Transaction distribution
system.membus.trans_dist::ReadResp               8367                       # Transaction distribution
system.membus.trans_dist::WriteReq                941                       # Transaction distribution
system.membus.trans_dist::WriteResp               941                       # Transaction distribution
system.membus.pkt_count_system.cpu.icache_port::system.mem_ctrls.port        14566                       # Packet count per connected master and slave (bytes)
system.membus.pkt_count_system.cpu.icache_port::total        14566                       # Packet count per connected master and slave (bytes)
system.membus.pkt_count_system.cpu.dcache_port::system.mem_ctrls.port         4050                       # Packet count per connected master and slave (bytes)
system.membus.pkt_count_system.cpu.dcache_port::total         4050                       # Packet count per connected master and slave (bytes)
system.membus.pkt_count::total                  18616                       # Packet count per connected master and slave (bytes)
system.membus.pkt_size_system.cpu.icache_port::system.mem_ctrls.port        58264                       # Cumulative packet size per connected master and slave (bytes)
system.membus.pkt_size_system.cpu.icache_port::total        58264                       # Cumulative packet size per connected master and slave (bytes)
system.membus.pkt_size_system.cpu.dcache_port::system.mem_ctrls.port        14327                       # Cumulative packet size per connected master and slave (bytes)
system.membus.pkt_size_system.cpu.dcache_port::total        14327                       # Cumulative packet size per connected master and slave (bytes)
system.membus.pkt_size::total                   72591                       # Cumulative packet size per connected master and slave (bytes)
system.membus.snoops                                0                       # Total snoops (count)
system.membus.snoopTraffic                          0                       # Total snoop traffic (bytes)
system.membus.snoop_fanout::samples              9308                       # Request fanout histogram
system.membus.snoop_fanout::mean                    0                       # Request fanout histogram
system.membus.snoop_fanout::stdev                   0                       # Request fanout histogram
system.membus.snoop_fanout::underflows              0      0.00%      0.00% # Request fanout histogram
system.membus.snoop_fanout::0                    9308    100.00%    100.00% # Request fanout histogram
system.membus.snoop_fanout::1                       0      0.00%    100.00% # Request fanout histogram
system.membus.snoop_fanout::overflows               0      0.00%    100.00% # Request fanout histogram
system.membus.snoop_fanout::min_value               0                       # Request fanout histogram
system.membus.snoop_fanout::max_value               0                       # Request fanout histogram
system.membus.snoop_fanout::total                9308                       # Request fanout histogram
system.membus.reqLayer2.occupancy            10249000                       # Layer occupancy (ticks)
system.membus.reqLayer2.utilization               2.3                       # Layer utilization (%)
system.membus.respLayer1.occupancy           16547250                       # Layer occupancy (ticks)
system.membus.respLayer1.utilization              3.6                       # Layer utilization (%)
system.membus.respLayer2.occupancy            3431500                       # Layer occupancy (ticks)
system.membus.respLayer2.utilization              0.8                       # Layer utilization (%)
system.voltage_domain.voltage                       1                       # Voltage in Volts
system.clk_domain.clock                          1000                       # Clock period in ticks
system.cpu_voltage_domain.voltage                   1                       # Voltage in Volts
system.mem_ctrls.pwrStateResidencyTicks::UNDEFINED    454507000                       # Cumulative time (in ticks) in various power states
system.mem_ctrls.bytes_read::.cpu.inst          58264                       # Number of bytes read from this memory
system.mem_ctrls.bytes_read::.cpu.data           7167                       # Number of bytes read from this memory
system.mem_ctrls.bytes_read::total              65431                       # Number of bytes read from this memory
system.mem_ctrls.bytes_inst_read::.cpu.inst        58264                       # Number of instructions bytes read from this memory
system.mem_ctrls.bytes_inst_read::total         58264                       # Number of instructions bytes read from this memory
system.mem_ctrls.bytes_written::.cpu.data         7160                       # Number of bytes written to this memory
system.mem_ctrls.bytes_written::total            7160                       # Number of bytes written to this memory
system.mem_ctrls.num_reads::.cpu.inst            7283                       # Number of read requests responded to by this memory
system.mem_ctrls.num_reads::.cpu.data            1084                       # Number of read requests responded to by this memory
system.mem_ctrls.num_reads::total                8367                       # Number of read requests responded to by this memory
system.mem_ctrls.num_writes::.cpu.data            941                       # Number of write requests responded to by this memory
system.mem_ctrls.num_writes::total                941                       # Number of write requests responded to by this memory
system.mem_ctrls.bw_read::.cpu.inst         128191645                       # Total read bandwidth from this memory (bytes/s)
system.mem_ctrls.bw_read::.cpu.data          15768734                       # Total read bandwidth from this memory (bytes/s)
system.mem_ctrls.bw_read::total             143960379                       # Total read bandwidth from this memory (bytes/s)
system.mem_ctrls.bw_inst_read::.cpu.inst    128191645                       # Instruction read bandwidth from this memory (bytes/s)
system.mem_ctrls.bw_inst_read::total        128191645                       # Instruction read bandwidth from this memory (bytes/s)
system.mem_ctrls.bw_write::.cpu.data         15753333                       # Write bandwidth from this memory (bytes/s)
system.mem_ctrls.bw_write::total             15753333                       # Write bandwidth from this memory (bytes/s)
system.mem_ctrls.bw_total::.cpu.inst        128191645                       # Total bandwidth to/from this memory (bytes/s)
system.mem_ctrls.bw_total::.cpu.data         31522067                       # Total bandwidth to/from this memory (bytes/s)
system.mem_ctrls.bw_total::total            159713712                       # Total bandwidth to/from this memory (bytes/s)
system.mem_ctrls.avgPriority_.cpu.inst::samples      7283.00                       # Average QoS priority value for accepted requests
system.mem_ctrls.avgPriority_.cpu.data::samples      1038.00                       # Average QoS priority value for accepted requests
system.mem_ctrls.priorityMinLatency      0.000000018750                       # per QoS priority minimum request to response latency (s)
system.mem_ctrls.priorityMaxLatency      0.000526129750                       # per QoS priority maximum request to response latency (s)
system.mem_ctrls.numReadWriteTurnArounds            6                       # Number of turnarounds from READ to WRITE
system.mem_ctrls.numWriteReadTurnArounds            6                       # Number of turnarounds from WRITE to READ
system.mem_ctrls.numStayReadState               17449                       # Number of times bus staying in READ state
system.mem_ctrls.numStayWriteState                 90                       # Number of times bus staying in WRITE state
system.mem_ctrls.readReqs                        8367                       # Number of read requests accepted
system.mem_ctrls.writeReqs                        941                       # Number of write requests accepted
system.mem_ctrls.readBursts                      8367                       # Number of DRAM read bursts, including those serviced by the write queue
system.mem_ctrls.writeBursts                      941                       # Number of DRAM write bursts, including those merged in the write queue
system.mem_ctrls.servicedByWrQ                    168                       # Number of DRAM read bursts serviced by the write queue
system.mem_ctrls.mergedWrBursts                   819                       # Number of DRAM write bursts merged with an existing one
system.mem_ctrls.neitherReadNorWriteReqs            0                       # Number of requests that are neither read nor write
system.mem_ctrls.perBankRdBursts::0               273                       # Per bank write bursts
system.mem_ctrls.perBankRdBursts::1                 4                       # Per bank write bursts
system.mem_ctrls.perBankRdBursts::2               227                       # Per bank write bursts
system.mem_ctrls.perBankRdBursts::3               102                       # Per bank write bursts
system.mem_ctrls.perBankRdBursts::4              1619                       # Per bank write bursts
system.mem_ctrls.perBankRdBursts::5               965                       # Per bank write bursts
system.mem_ctrls.perBankRdBursts::6              1103                       # Per bank write bursts
system.mem_ctrls.perBankRdBursts::7               906                       # Per bank write bursts
system.mem_ctrls.perBankRdBursts::8               703                       # Per bank write bursts
system.mem_ctrls.perBankRdBursts::9               490                       # Per bank write bursts
system.mem_ctrls.perBankRdBursts::10             1055                       # Per bank write bursts
system.mem_ctrls.perBankRdBursts::11               59                       # Per bank write bursts
system.mem_ctrls.perBankRdBursts::12               11                       # Per bank write bursts
system.mem_ctrls.perBankRdBursts::13              489                       # Per bank write bursts
system.mem_ctrls.perBankRdBursts::14               78                       # Per bank write bursts
system.mem_ctrls.perBankRdBursts::15              115                       # Per bank write bursts
system.mem_ctrls.perBankWrBursts::0                 6                       # Per bank write bursts
system.mem_ctrls.perBankWrBursts::1                 0                       # Per bank write bursts
system.mem_ctrls.perBankWrBursts::2                 0                       # Per bank write bursts
system.mem_ctrls.perBankWrBursts::3                 0                       # Per bank write bursts
system.mem_ctrls.perBankWrBursts::4                 0                       # Per bank write bursts
system.mem_ctrls.perBankWrBursts::5                 0                       # Per bank write bursts
system.mem_ctrls.perBankWrBursts::6                 0                       # Per bank write bursts
system.mem_ctrls.perBankWrBursts::7                 0                       # Per bank write bursts
system.mem_ctrls.perBankWrBursts::8                 2                       # Per bank write bursts
system.mem_ctrls.perBankWrBursts::9                53                       # Per bank write bursts
system.mem_ctrls.perBankWrBursts::10               23                       # Per bank write bursts
system.mem_ctrls.perBankWrBursts::11                7                       # Per bank write bursts
system.mem_ctrls.perBankWrBursts::12                0                       # Per bank write bursts
system.mem_ctrls.perBankWrBursts::13                0                       # Per bank write bursts
system.mem_ctrls.perBankWrBursts::14                0                       # Per bank write bursts
system.mem_ctrls.perBankWrBursts::15                5                       # Per bank write bursts
system.mem_ctrls.avgRdQLen                       1.00                       # Average read queue length when enqueuing
system.mem_ctrls.avgWrQLen                      23.84                       # Average write queue length when enqueuing
system.mem_ctrls.totQLat                     29381000                       # Total ticks spent queuing
system.mem_ctrls.totBusLat                   40995000                       # Total ticks spent in databus transfers
system.mem_ctrls.totMemAccLat               183112250                       # Total ticks spent from burst creation until serviced by the DRAM
system.mem_ctrls.avgQLat                      3583.49                       # Average queueing delay per DRAM burst
system.mem_ctrls.avgBusLat                    5000.00                       # Average bus latency per DRAM burst
system.mem_ctrls.avgMemAccLat                22333.49                       # Average memory access latency per DRAM burst
system.mem_ctrls.numRdRetry                         0                       # Number of times read queue was full causing retry
system.mem_ctrls.numWrRetry                         0                       # Number of times write queue was full causing retry
system.mem_ctrls.readRowHits                     7356                       # Number of row buffer hits during reads
system.mem_ctrls.writeRowHits                      85                       # Number of row buffer hits during writes
system.mem_ctrls.readRowHitRate                 89.72                       # Row buffer hit rate for reads
system.mem_ctrls.writeRowHitRate                69.67                       # Row buffer hit rate for writes
system.mem_ctrls.readPktSize::0                   135                       # Read request sizes (log2)
system.mem_ctrls.readPktSize::1                    14                       # Read request sizes (log2)
system.mem_ctrls.readPktSize::2                   119                       # Read request sizes (log2)
system.mem_ctrls.readPktSize::3                  8099                       # Read request sizes (log2)
system.mem_ctrls.readPktSize::4                     0                       # Read request sizes (log2)
system.mem_ctrls.readPktSize::5                     0                       # Read request sizes (log2)
system.mem_ctrls.readPktSize::6                     0                       # Read request sizes (log2)
system.mem_ctrls.writePktSize::0                   14                       # Write request sizes (log2)
system.mem_ctrls.writePktSize::1                    3                       # Write request sizes (log2)
system.mem_ctrls.writePktSize::2                   63                       # Write request sizes (log2)
system.mem_ctrls.writePktSize::3                  861                       # Write request sizes (log2)
system.mem_ctrls.writePktSize::4                    0                       # Write request sizes (log2)
system.mem_ctrls.writePktSize::5                    0                       # Write request sizes (log2)
system.mem_ctrls.writePktSize::6                    0                       # Write request sizes (log2)
system.mem_ctrls.rdQLenPdf::0                    8199                       # What read queue length does an incoming req see
system.mem_ctrls.rdQLenPdf::1                       0                       # What read queue length does an incoming req see
system.mem_ctrls.rdQLenPdf::2                       0                       # What read queue length does an incoming req see
system.mem_ctrls.rdQLenPdf::3                       0                       # What read queue length does an incoming req see
system.mem_ctrls.rdQLenPdf::4                       0                       # What read queue length does an incoming req see
system.mem_ctrls.rdQLenPdf::5                       0                       # What read queue length does an incoming req see
system.mem_ctrls.rdQLenPdf::6                       0                       # What read queue length does an incoming req see
system.mem_ctrls.rdQLenPdf::7                       0                       # What read queue length does an incoming req see
system.mem_ctrls.rdQLenPdf::8                       0                       # What read queue length does an incoming req see
system.mem_ctrls.rdQLenPdf::9                       0                       # What read queue length does an incoming req see
system.mem_ctrls.rdQLenPdf::10                      0                       # What read queue length does an incoming req see
system.mem_ctrls.rdQLenPdf::11                      0                       # What read queue length does an incoming req see
system.mem_ctrls.rdQLenPdf::12                      0                       # What read queue length does an incoming req see
system.mem_ctrls.rdQLenPdf::13                      0                       # What read queue length does an incoming req see
system.mem_ctrls.rdQLenPdf::14                      0                       # What read queue length does an incoming req see
system.mem_ctrls.rdQLenPdf::15                      0                       # What read queue length does an incoming req see
system.mem_ctrls.rdQLenPdf::16                      0                       # What read queue length does an incoming req see
system.mem_ctrls.rdQLenPdf::17                      0                       # What read queue length does an incoming req see
system.mem_ctrls.rdQLenPdf::18                      0                       # What read queue length does an incoming req see
system.mem_ctrls.rdQLenPdf::19                      0                       # What read queue length does an incoming req see
system.mem_ctrls.rdQLenPdf::20                      0                       # What read queue length does an incoming req see
system.mem_ctrls.rdQLenPdf::21                      0                       # What read queue length does an incoming req see
system.mem_ctrls.rdQLenPdf::22                      0                       # What read queue length does an incoming req see
system.mem_ctrls.rdQLenPdf::23                      0                       # What read queue length does an incoming req see
system.mem_ctrls.rdQLenPdf::24                      0                       # What read queue length does an incoming req see
system.mem_ctrls.rdQLenPdf::25                      0                       # What read queue length does an incoming req see
system.mem_ctrls.rdQLenPdf::26                      0                       # What read queue length does an incoming req see
system.mem_ctrls.rdQLenPdf::27                      0                       # What read queue length does an incoming req see
system.mem_ctrls.rdQLenPdf::28                      0                       # What read queue length does an incoming req see
system.mem_ctrls.rdQLenPdf::29                      0                       # What read queue length does an incoming req see
system.mem_ctrls.rdQLenPdf::30                      0                       # What read queue length does an incoming req see
system.mem_ctrls.rdQLenPdf::31                      0                       # What read queue length does an incoming req see
system.mem_ctrls.wrQLenPdf::0                       1                       # What write queue length does an incoming req see
system.mem_ctrls.wrQLenPdf::1                       1                       # What write queue length does an incoming req see
system.mem_ctrls.wrQLenPdf::2                       1                       # What write queue length does an incoming req see
system.mem_ctrls.wrQLenPdf::3                       1                       # What write queue length does an incoming req see
system.mem_ctrls.wrQLenPdf::4                       1                       # What write queue length does an incoming req see
system.mem_ctrls.wrQLenPdf::5                       1                       # What write queue length does an incoming req see
system.mem_ctrls.wrQLenPdf::6                       1                       # What write queue length does an incoming req see
system.mem_ctrls.wrQLenPdf::7                       1                       # What write queue length does an incoming req see
system.mem_ctrls.wrQLenPdf::8                       1                       # What write queue length does an incoming req see
system.mem_ctrls.wrQLenPdf::9                       1                       # What write queue length does an incoming req see
system.mem_ctrls.wrQLenPdf::10                      1                       # What write queue length does an incoming req see
system.mem_ctrls.wrQLenPdf::11                      1                       # What write queue length does an incoming req see
system.mem_ctrls.wrQLenPdf::12                      1                       # What write queue length does an incoming req see
system.mem_ctrls.wrQLenPdf::13                      1                       # What write queue length does an incoming req see
system.mem_ctrls.wrQLenPdf::14                      1                       # What write queue length does an incoming req see
system.mem_ctrls.wrQLenPdf::15                      1                       # What write queue length does an incoming req see
system.mem_ctrls.wrQLenPdf::16                      1                       # What write queue length does an incoming req see
system.mem_ctrls.wrQLenPdf::17                      7                       # What write queue length does an incoming req see
system.mem_ctrls.wrQLenPdf::18                      7                       # What write queue length does an incoming req see
system.mem_ctrls.wrQLenPdf::19                      7                       # What write queue length does an incoming req see
system.mem_ctrls.wrQLenPdf::20                      7                       # What write queue length does an incoming req see
system.mem_ctrls.wrQLenPdf::21                      7                       # What write queue length does an incoming req see
system.mem_ctrls.wrQLenPdf::22                      7                       # What write queue length does an incoming req see
system.mem_ctrls.wrQLenPdf::23                      7                       # What write queue length does an incoming req see
system.mem_ctrls.wrQLenPdf::24                      7                       # What write queue length does an incoming req see
system.mem_ctrls.wrQLenPdf::25                      7                       # What write queue length does an incoming req see
system.mem_ctrls.wrQLenPdf::26                      6                       # What write queue length does an incoming req see
system.mem_ctrls.wrQLenPdf::27                      6                       # What write queue length does an incoming req see
system.mem_ctrls.wrQLenPdf::28                      6                       # What write queue length does an incoming req see
system.mem_ctrls.wrQLenPdf::29                      6                       # What write queue length does an incoming req see
system.mem_ctrls.wrQLenPdf::30                      6                       # What write queue length does an incoming req see
system.mem_ctrls.wrQLenPdf::31                      6                       # What write queue length does an incoming req see
system.mem_ctrls.wrQLenPdf::32                      6                       # What write queue length does an incoming req see
system.mem_ctrls.wrQLenPdf::33                      0                       # What write queue length does an incoming req see
system.mem_ctrls.wrQLenPdf::34                      0                       # What write queue length does an incoming req see
system.mem_ctrls.wrQLenPdf::35                      0                       # What write queue length does an incoming req see
system.mem_ctrls.wrQLenPdf::36                      0                       # What write queue length does an incoming req see
system.mem_ctrls.wrQLenPdf::37                      0                       # What write queue length does an incoming req see
system.mem_ctrls.wrQLenPdf::38                      0                       # What write queue length does an incoming req see
system.mem_ctrls.wrQLenPdf::39                      0                       # What write queue length does an incoming req see
system.mem_ctrls.wrQLenPdf::40                      0                       # What write queue length does an incoming req see
system.mem_ctrls.wrQLenPdf::41                      0                       # What write queue length does an incoming req see
system.mem_ctrls.wrQLenPdf::42                      0                       # What write queue length does an incoming req see
system.mem_ctrls.wrQLenPdf::43                      0                       # What write queue length does an incoming req see
system.mem_ctrls.wrQLenPdf::44                      0                       # What write queue length does an incoming req see
system.mem_ctrls.wrQLenPdf::45                      0                       # What write queue length does an incoming req see
system.mem_ctrls.wrQLenPdf::46                      0                       # What write queue length does an incoming req see
system.mem_ctrls.wrQLenPdf::47                      0                       # What write queue length does an incoming req see
system.mem_ctrls.wrQLenPdf::48                      0                       # What write queue length does an incoming req see
system.mem_ctrls.wrQLenPdf::49                      0                       # What write queue length does an incoming req see
system.mem_ctrls.wrQLenPdf::50                      0                       # What write queue length does an incoming req see
system.mem_ctrls.wrQLenPdf::51                      0                       # What write queue length does an incoming req see
system.mem_ctrls.wrQLenPdf::52                      0                       # What write queue length does an incoming req see
system.mem_ctrls.wrQLenPdf::53                      0                       # What write queue length does an incoming req see
system.mem_ctrls.wrQLenPdf::54                      0                       # What write queue length does an incoming req see
system.mem_ctrls.wrQLenPdf::55                      0                       # What write queue length does an incoming req see
system.mem_ctrls.wrQLenPdf::56                      0                       # What write queue length does an incoming req see
system.mem_ctrls.wrQLenPdf::57                      0                       # What write queue length does an incoming req see
system.mem_ctrls.wrQLenPdf::58                      0                       # What write queue length does an incoming req see
system.mem_ctrls.wrQLenPdf::59                      0                       # What write queue length does an incoming req see
system.mem_ctrls.wrQLenPdf::60                      0                       # What write queue length does an incoming req see
system.mem_ctrls.wrQLenPdf::61                      0                       # What write queue length does an incoming req see
system.mem_ctrls.wrQLenPdf::62                      0                       # What write queue length does an incoming req see
system.mem_ctrls.wrQLenPdf::63                      0                       # What write queue length does an incoming req see
system.mem_ctrls.bytesPerActivate::samples          849                       # Bytes accessed per row activation
system.mem_ctrls.bytesPerActivate::mean    622.812721                       # Bytes accessed per row activation
system.mem_ctrls.bytesPerActivate::gmean   426.803074                       # Bytes accessed per row activation
system.mem_ctrls.bytesPerActivate::stdev   394.306776                       # Bytes accessed per row activation
system.mem_ctrls.bytesPerActivate::0-127          142     16.73%     16.73% # Bytes accessed per row activation
system.mem_ctrls.bytesPerActivate::128-255           69      8.13%     24.85% # Bytes accessed per row activation
system.mem_ctrls.bytesPerActivate::256-383           77      9.07%     33.92% # Bytes accessed per row activation
system.mem_ctrls.bytesPerActivate::384-511           63      7.42%     41.34% # Bytes accessed per row activation
system.mem_ctrls.bytesPerActivate::512-639           55      6.48%     47.82% # Bytes accessed per row activation
system.mem_ctrls.bytesPerActivate::640-767           39      4.59%     52.41% # Bytes accessed per row activation
system.mem_ctrls.bytesPerActivate::768-895           28      3.30%     55.71% # Bytes accessed per row activation
system.mem_ctrls.bytesPerActivate::896-1023           21      2.47%     58.19% # Bytes accessed per row activation
system.mem_ctrls.bytesPerActivate::1024-1151          355     41.81%    100.00% # Bytes accessed per row activation
system.mem_ctrls.bytesPerActivate::total          849                       # Bytes accessed per row activation
system.mem_ctrls.rdPerTurnAround::samples            6                       # Reads before turning the bus around for writes
system.mem_ctrls.rdPerTurnAround::mean    1282.333333                       # Reads before turning the bus around for writes
system.mem_ctrls.rdPerTurnAround::gmean   1020.532539                       # Reads before turning the bus around for writes
system.mem_ctrls.rdPerTurnAround::stdev    764.587906                       # Reads before turning the bus around for writes
system.mem_ctrls.rdPerTurnAround::256-383            1     16.67%     16.67% # Reads before turning the bus around for writes
system.mem_ctrls.rdPerTurnAround::384-511            1     16.67%     33.33% # Reads before turning the bus around for writes
system.mem_ctrls.rdPerTurnAround::1280-1407            1     16.67%     50.00% # Reads before turning the bus around for writes
system.mem_ctrls.rdPerTurnAround::1408-1535            1     16.67%     66.67% # Reads before turning the bus around for writes
system.mem_ctrls.rdPerTurnAround::1920-2047            1     16.67%     83.33% # Reads before turning the bus around for writes
system.mem_ctrls.rdPerTurnAround::2048-2175            1     16.67%    100.00% # Reads before turning the bus around for writes
system.mem_ctrls.rdPerTurnAround::total             6                       # Reads before turning the bus around for writes
system.mem_ctrls.wrPerTurnAround::samples            6                       # Writes before turning the bus around for reads
system.mem_ctrls.wrPerTurnAround::mean             16                       # Writes before turning the bus around for reads
system.mem_ctrls.wrPerTurnAround::gmean     16.000000                       # Writes before turning the bus around for reads
system.mem_ctrls.wrPerTurnAround::16                6    100.00%    100.00% # Writes before turning the bus around for reads
system.mem_ctrls.wrPerTurnAround::total             6                       # Writes before turning the bus around for reads
system.mem_ctrls.bytesReadDRAM                 524736                       # Total number of bytes read from DRAM
system.mem_ctrls.bytesReadWrQ                   10752                       # Total number of bytes read from write queue
system.mem_ctrls.bytesWritten                    6144                       # Total number of bytes written to DRAM
system.mem_ctrls.bytesReadSys                   65431                       # Total read bytes from the system interface side
system.mem_ctrls.bytesWrittenSys                 7160                       # Total written bytes from the system interface side
system.mem_ctrls.avgRdBW                      1154.52                       # Average DRAM read bandwidth in MiByte/s
system.mem_ctrls.avgWrBW                        13.52                       # Average achieved write bandwidth in MiByte/s
system.mem_ctrls.avgRdBWSys                    143.96                       # Average system read bandwidth in MiByte/s
system.mem_ctrls.avgWrBWSys                     15.75                       # Average system write bandwidth in MiByte/s
system.mem_ctrls.peakBW                      12800.00                       # Theoretical peak bandwidth in MiByte/s
system.mem_ctrls.busUtil                         9.13                       # Data bus utilization in percentage
system.mem_ctrls.busUtilRead                     9.02                       # Data bus utilization in percentage for reads
system.mem_ctrls.busUtilWrite                    0.11                       # Data bus utilization in percentage for writes
system.mem_ctrls.totGap                     454381000                       # Total gap between requests
system.mem_ctrls.avgGap                      48816.18                       # Average gap between requests
system.mem_ctrls.masterReadBytes::.cpu.inst        58264                       # Per-master bytes read from memory
system.mem_ctrls.masterReadBytes::.cpu.data         6032                       # Per-master bytes read from memory
system.mem_ctrls.masterWriteBytes::.cpu.data          725                       # Per-master bytes write to memory
system.mem_ctrls.masterReadRate::.cpu.inst 128191645.013168111444                       # Per-master bytes read from memory rate (Bytes/sec)
system.mem_ctrls.masterReadRate::.cpu.data 13271522.770826412365                       # Per-master bytes read from memory rate (Bytes/sec)
system.mem_ctrls.masterWriteRate::.cpu.data 1595134.948416636093                       # Per-master bytes write to memory rate (Bytes/sec)
system.mem_ctrls.masterReadAccesses::.cpu.inst         7283                       # Per-master read serviced memory accesses
system.mem_ctrls.masterReadAccesses::.cpu.data         1084                       # Per-master read serviced memory accesses
system.mem_ctrls.masterWriteAccesses::.cpu.data          941                       # Per-master write serviced memory accesses
system.mem_ctrls.masterReadTotalLat::.cpu.inst    159000750                       # Per-master read total memory access latency
system.mem_ctrls.masterReadTotalLat::.cpu.data     24111500                       # Per-master read total memory access latency
system.mem_ctrls.masterWriteTotalLat::.cpu.data   8423896000                       # Per-master write total memory access latency
system.mem_ctrls.masterReadAvgLat::.cpu.inst     21831.77                       # Per-master read average memory access latency
system.mem_ctrls.masterReadAvgLat::.cpu.data     22243.08                       # Per-master read average memory access latency
system.mem_ctrls.masterWriteAvgLat::.cpu.data   8952068.01                       # Per-master write average memory access latency
system.mem_ctrls.pageHitRate                    89.42                       # Row buffer hit rate, read and write combined
system.mem_ctrls.rank1.actEnergy              2970240                       # Energy for activate commands per rank (pJ)
system.mem_ctrls.rank1.preEnergy              1571130                       # Energy for precharge commands per rank (pJ)
system.mem_ctrls.rank1.readEnergy            21420000                       # Energy for read commands per rank (pJ)
system.mem_ctrls.rank1.writeEnergy             469800                       # Energy for write commands per rank (pJ)
system.mem_ctrls.rank1.refreshEnergy     35649120.000000                       # Energy for refresh commands per rank (pJ)
system.mem_ctrls.rank1.actBackEnergy        183074310                       # Energy for active background per rank (pJ)
system.mem_ctrls.rank1.preBackEnergy         20363040                       # Energy for precharge background per rank (pJ)
system.mem_ctrls.rank1.actPowerDownEnergy            0                       # Energy for active power-down per rank (pJ)
system.mem_ctrls.rank1.prePowerDownEnergy            0                       # Energy for precharge power-down per rank (pJ)
system.mem_ctrls.rank1.selfRefreshEnergy            0                       # Energy for self refresh per rank (pJ)
system.mem_ctrls.rank1.totalEnergy          265517640                       # Total energy per rank (pJ)
system.mem_ctrls.rank1.averagePower        584.188230                       # Core power per rank (mW)
system.mem_ctrls.rank1.totalIdleTime                0                       # Total Idle time Per DRAM Rank
system.mem_ctrls.rank1.memoryStateTime::IDLE     50725000                       # Time in different power states
system.mem_ctrls.rank1.memoryStateTime::REF     15080000                       # Time in different power states
system.mem_ctrls.rank1.memoryStateTime::SREF            0                       # Time in different power states
system.mem_ctrls.rank1.memoryStateTime::PRE_PDN            0                       # Time in different power states
system.mem_ctrls.rank1.memoryStateTime::ACT    388702000                       # Time in different power states
system.mem_ctrls.rank1.memoryStateTime::ACT_PDN            0                       # Time in different power states
system.mem_ctrls.rank0.actEnergy              3127320                       # Energy for activate commands per rank (pJ)
system.mem_ctrls.rank0.preEnergy              1650825                       # Energy for precharge commands per rank (pJ)
system.mem_ctrls.rank0.readEnergy            37120860                       # Energy for read commands per rank (pJ)
system.mem_ctrls.rank0.writeEnergy              31320                       # Energy for write commands per rank (pJ)
system.mem_ctrls.rank0.refreshEnergy     35649120.000000                       # Energy for refresh commands per rank (pJ)
system.mem_ctrls.rank0.actBackEnergy        166731270                       # Energy for active background per rank (pJ)
system.mem_ctrls.rank0.preBackEnergy         34125600                       # Energy for precharge background per rank (pJ)
system.mem_ctrls.rank0.actPowerDownEnergy            0                       # Energy for active power-down per rank (pJ)
system.mem_ctrls.rank0.prePowerDownEnergy            0                       # Energy for precharge power-down per rank (pJ)
system.mem_ctrls.rank0.selfRefreshEnergy            0                       # Energy for self refresh per rank (pJ)
system.mem_ctrls.rank0.totalEnergy          278436315                       # Total energy per rank (pJ)
system.mem_ctrls.rank0.averagePower        612.611720                       # Core power per rank (mW)
system.mem_ctrls.rank0.totalIdleTime                0                       # Total Idle time Per DRAM Rank
system.mem_ctrls.rank0.memoryStateTime::IDLE     86206500                       # Time in different power states
system.mem_ctrls.rank0.memoryStateTime::REF     15080000                       # Time in different power states
system.mem_ctrls.rank0.memoryStateTime::SREF            0                       # Time in different power states
system.mem_ctrls.rank0.memoryStateTime::PRE_PDN            0                       # Time in different power states
system.mem_ctrls.rank0.memoryStateTime::ACT    353220500                       # Time in different power states
system.mem_ctrls.rank0.memoryStateTime::ACT_PDN            0                       # Time in different power states
system.cpu_clk_domain.clock                       500                       # Clock period in ticks
system.cpu.numPwrStateTransitions                   1                       # Number of power state transitions
system.cpu.pwrStateResidencyTicks::ON       454507000                       # Cumulative time (in ticks) in various power states
system.cpu.dtb.walker.pwrStateResidencyTicks::UNDEFINED    454507000                       # Cumulative time (in ticks) in various power states
system.cpu.interrupts.clk_domain.clock           8000                       # Clock period in ticks
system.cpu.itb.walker.pwrStateResidencyTicks::UNDEFINED    454507000                       # Cumulative time (in ticks) in various power states

---------- End Simulation Statistics   ----------
